Input Parameters:
   integrator                     = md
   tinit                          = 0
   dt                             = 0.001
   nsteps                         = 125000
   init-step                      = 0
   simulation-part                = 1
   comm-mode                      = Linear
   nstcomm                        = 100
   bd-fric                        = 0
   ld-seed                        = 265905703
   emtol                          = 10
   emstep                         = 0.01
   niter                          = 20
   fcstep                         = 0
   nstcgsteep                     = 1000
   nbfgscorr                      = 10
   rtpi                           = 0.05
   nstxout                        = 0
   nstvout                        = 5000
   nstfout                        = 5000
   nstlog                         = 1000
   nstcalcenergy                  = 100
   nstenergy                      = 1000
   nstxout-compressed             = 5000
   compressed-x-precision         = 1000
   cutoff-scheme                  = Verlet
   nstlist                        = 20
   pbc                            = xyz
   periodic-molecules             = false
   verlet-buffer-tolerance        = 0.005
   rlist                          = 0.9
   coulombtype                    = PME
   coulomb-modifier               = Potential-shift
   rcoulomb-switch                = 0
   rcoulomb                       = 0.9
   epsilon-r                      = 1
   epsilon-rf                     = inf
   vdw-type                       = Cut-off
   vdw-modifier                   = None
   rvdw-switch                    = 0
   rvdw                           = 0.9
   DispCorr                       = EnerPres
   table-extension                = 1
   fourierspacing                 = 0.12
   fourier-nx                     = 52
   fourier-ny                     = 52
   fourier-nz                     = 144
   pme-order                      = 4
   ewald-rtol                     = 1e-05
   ewald-rtol-lj                  = 0.001
   lj-pme-comb-rule               = Geometric
   ewald-geometry                 = 0
   epsilon-surface                = 0
   tcoupl                         = Berendsen
   nsttcouple                     = 20
   nh-chain-length                = 0
   print-nose-hoover-chain-variables = false
   pcoupl                         = Berendsen
   pcoupltype                     = Semiisotropic
   nstpcouple                     = 20
   tau-p                          = 5
   compressibility (3x3):
      compressibility[    0]={ 4.50000e-05,  0.00000e+00,  0.00000e+00}
      compressibility[    1]={ 0.00000e+00,  4.50000e-05,  0.00000e+00}
      compressibility[    2]={ 0.00000e+00,  0.00000e+00,  4.50000e-05}
   ref-p (3x3):
      ref-p[    0]={ 1.00000e+00,  0.00000e+00,  0.00000e+00}
      ref-p[    1]={ 0.00000e+00,  1.00000e+00,  0.00000e+00}
      ref-p[    2]={ 0.00000e+00,  0.00000e+00,  1.00000e+00}
   refcoord-scaling               = COM
   posres-com (3):
      posres-com[0]= 5.00688e-01
      posres-com[1]= 4.96273e-01
      posres-com[2]= 7.05335e-01
   posres-comB (3):
      posres-comB[0]= 5.00688e-01
      posres-comB[1]= 4.96273e-01
      posres-comB[2]= 7.05335e-01
   QMMM                           = false
   QMconstraints                  = 0
   QMMMscheme                     = 0
   MMChargeScaleFactor            = 1
qm-opts:
   ngQM                           = 0
   constraint-algorithm           = Lincs
   continuation                   = true
   Shake-SOR                      = false
   shake-tol                      = 0.0001
   lincs-order                    = 4
   lincs-iter                     = 1
   lincs-warnangle                = 30
   nwall                          = 0
   wall-type                      = 9-3
   wall-r-linpot                  = -1
   wall-atomtype[0]               = -1
   wall-atomtype[1]               = -1
   wall-density[0]                = 0
   wall-density[1]                = 0
   wall-ewald-zfac                = 3
   pull                           = false
   awh                            = false
   rotation                       = false
   interactiveMD                  = false
   disre                          = No
   disre-weighting                = Conservative
   disre-mixed                    = false
   dr-fc                          = 1000
   dr-tau                         = 0
   nstdisreout                    = 100
   orire-fc                       = 0
   orire-tau                      = 0
   nstorireout                    = 100
   free-energy                    = no
   cos-acceleration               = 0
   deform (3x3):
      deform[    0]={ 0.00000e+00,  0.00000e+00,  0.00000e+00}
      deform[    1]={ 0.00000e+00,  0.00000e+00,  0.00000e+00}
      deform[    2]={ 0.00000e+00,  0.00000e+00,  0.00000e+00}
   simulated-tempering            = false
   swapcoords                     = no
   userint1                       = 0
   userint2                       = 0
   userint3                       = 0
   userint4                       = 0
   userreal1                      = 0
   userreal2                      = 0
   userreal3                      = 0
   userreal4                      = 0
   applied-forces:
     electric-field:
       x:
         E0                       = 0
         omega                    = 0
         t0                       = 0
         sigma                    = 0
       y:
         E0                       = 0
         omega                    = 0
         t0                       = 0
         sigma                    = 0
       z:
         E0                       = 0
         omega                    = 0
         t0                       = 0
         sigma                    = 0
     density-guided-simulation:
       active                     = false
       group                      = protein
       similarity-measure         = inner-product
       atom-spreading-weight      = unity
       force-constant             = 1e+09
       gaussian-transform-spreading-width = 0.2
       gaussian-transform-spreading-range-in-multiples-of-width = 4
       reference-density-filename = reference.mrc
       nst                        = 1
       normalize-densities        = true
       adaptive-force-scaling     = false
       adaptive-force-scaling-time-constant = 4
grpopts:
   nrdf:     682.941     34317.1       88038
   ref-t:      303.15      303.15      303.15
   tau-t:           1           1           1
annealing:          No          No          No
annealing-npoints:           0           0           0
   acc:	           0           0           0
   nfreeze:           N           N           N
   energygrp-flags[  0]: 0

Changing nstlist from 20 to 100, rlist from 0.9 to 0.994

Initializing Domain Decomposition on 64 ranks
Dynamic load balancing: locked
Using update groups, nr 20401, average size 2.9 atoms, max. radius 0.137 nm
Minimum cell size due to atom displacement: 0.412 nm
Initial maximum distances in bonded interactions:
    two-body bonded interactions: 0.420 nm, LJC-14 q, atoms 6894 6903
  multi-body bonded interactions: 0.487 nm, CMAP Dih., atoms 79 91
Minimum cell size due to bonded interactions: 0.536 nm
Scaling the initial minimum size with 1/0.8 (option -dds) = 1.25
Guess for relative PME load: 0.18
Will use 48 particle-particle and 16 PME only ranks
This is a guess, check the performance at the end of the log file
Using 16 separate PME ranks, as guessed by mdrun
Optimizing the DD grid for 48 cells with a minimum initial size of 0.670 nm
The maximum allowed number of cells is: X 9 Y 9 Z 25
Domain decomposition grid 4 x 4 x 3, separate PME ranks 16
PME domain decomposition: 4 x 4 x 1
Interleaving PP and PME ranks
This rank does only particle-particle work.
Domain decomposition rank 0, coordinates 0 0 0

The initial number of communication pulses is: X 1 Y 1 Z 1
The initial domain decomposition cell size is: X 1.51 nm Y 1.51 nm Z 5.63 nm

The maximum allowed distance for atom groups involved in interactions is:
                 non-bonded interactions           1.267 nm
(the following are initial values, they could change due to box deformation)
            two-body bonded interactions  (-rdd)   1.267 nm
          multi-body bonded interactions  (-rdd)   1.267 nm

When dynamic load balancing gets turned on, these settings will change to:
The maximum number of communication pulses is: X 2 Y 2 Z 2
The minimum size for domain decomposition cells is 1.022 nm
The requested allowed shrink of DD cells (option -dds) is: 0.80
The allowed shrink of domain decomposition cells is: X 0.68 Y 0.68 Z 0.18
The maximum allowed distance for atom groups involved in interactions is:
                 non-bonded interactions           1.267 nm
            two-body bonded interactions  (-rdd)   1.267 nm
          multi-body bonded interactions  (-rdd)   1.022 nm

Using 64 MPI threads
Using 1 OpenMP thread per tMPI thread

Pinning threads with an auto-selected logical core stride of 1
System total charge: 0.000
Will do PME sum in reciprocal space for electrostatic interactions.

Using a Gaussian width (1/beta) of 0.288146 nm for Ewald
Potential shift: LJ r^-12: 0.000e+00 r^-6: 0.000e+00, Ewald -1.111e-05
Initialized non-bonded Coulomb Ewald tables, spacing: 8.85e-04 size: 1018

Generated table with 997 data points for 1-4 COUL.
Tabscale = 500 points/nm
Generated table with 997 data points for 1-4 LJ6.
Tabscale = 500 points/nm
Generated table with 997 data points for 1-4 LJ12.
Tabscale = 500 points/nm

Using SIMD 4x4 nonbonded short-range kernels

Using a dual 4x4 pair-list setup updated with dynamic pruning:
  outer list: updated every 100 steps, buffer 0.094 nm, rlist 0.994 nm
  inner list: updated every  27 steps, buffer 0.001 nm, rlist 0.901 nm
At tolerance 0.005 kJ/mol/ps per atom, equivalent classical 1x1 list would be:
  outer list: updated every 100 steps, buffer 0.221 nm, rlist 1.121 nm
  inner list: updated every  27 steps, buffer 0.053 nm, rlist 0.953 nm

Using Lorentz-Berthelot Lennard-Jones combination rule

Long Range LJ corr.: <C6> 3.5096e-04

Initializing LINear Constraint Solver

The number of constraints is 8968

Linking all bonded interactions to atoms

Intra-simulation communication will occur every 20 steps.

There are: 58639 Atoms
Atom distribution over 48 domains: av 1221 stddev 74 min 1137 max 1348
Center of mass motion removal mode is Linear
We have the following groups for center of mass motion removal:
  0:  SOLU_MEMB
  1:  SOLV

Started mdrun on rank 0 Sat Sep 16 20:37:51 2023

           Step           Time
              0        0.00000

   Energies (kJ/mol)
           Bond            U-B    Proper Dih.  Improper Dih.      CMAP Dih.
    7.73926e+03    3.05957e+04    1.60038e+04    3.22066e+02    8.47300e+01
          LJ-14     Coulomb-14        LJ (SR)  Disper. corr.   Coulomb (SR)
    6.72379e+03   -5.82290e+04    6.49056e+04   -5.64293e+03   -7.68563e+05
    8.63199e+03    2.70155e+02    5.58664e+01   -6.97102e+05    1.56817e+05
   -5.40285e+05   -5.40255e+05    3.06584e+02   -3.05020e+02   -1.20961e+03
    2.33184e-06

	<====  A V E R A G E S  ====>

	Statistics over 125001 steps using 1251 frames

   Energies (kJ/mol)
           Bond            U-B    Proper Dih.  Improper Dih.      CMAP Dih.
    7.47677e+03    3.04005e+04    1.63280e+04    3.14148e+02    8.91034e+01
          LJ-14     Coulomb-14        LJ (SR)  Disper. corr.   Coulomb (SR)
    6.76797e+03   -5.82824e+04    6.72162e+04   -5.96928e+03   -7.80573e+05
   Coul. recip. Position Rest.     Dih. Rest.      Potential    Kinetic En.
    8.23782e+03    3.64156e+02    6.74786e+01   -7.07563e+05    1.55067e+05
   Total Energy  Conserved En.    Temperature Pres. DC (bar) Pressure (bar)
   -5.52496e+05   -5.43653e+05    3.03162e+02   -3.41354e+02   -5.86989e+01
   Constr. rmsd
    0.00000e+00

          Box-X          Box-Y          Box-Z
    5.90422e+00    5.90422e+00    1.66627e+01

   Total Virial (kJ/mol)
    5.23948e+04   -1.56452e+01   -6.46141e+01
   -1.54956e+01    5.27980e+04    1.72990e+02
   -6.44892e+01    1.71140e+02    5.30294e+04

   Pressure (bar)
   -6.01391e+01    2.08547e+00    2.48352e+00
    2.07691e+00   -8.26953e+01   -7.56511e+00
    2.47790e+00   -7.45662e+00   -3.32623e+01

         T-SOLU         T-MEMB         T-SOLV
    3.03556e+02    3.03080e+02    3.03191e+02
